LTspice 24.1.7 for Windows
Circuit: C:\Users\Parry\Documents\GitHub\BCIT-BAJA\testing\LTSPICE_SIMS\powerSupplyMeasurement.net
Start Time: Wed Apr 30 08:10:58 2025
solver = Normal
Maximum thread count: 16
tnom = 27
temp = 27
method = trap
Direct Newton iteration for .op point succeeded.
Total elapsed time: 0.141 seconds.

Files loaded:
C:\Users\Parry\Documents\GitHub\BCIT-BAJA\testing\LTSPICE_SIMS\powerSupplyMeasurement.net
C:\Users\Parry\AppData\Local\LTspice\lib\cmp\standard.mos

