LTspice 24.0.12 for Windows
Circuit: * C:\Users\Parry\Documents\github\BCIT-BAJA\testing\LTSPICE_SIMS\powerSupplyMeasurement.asc
Start Time: Sun Apr 27 09:33:37 2025
solver = Normal
Maximum thread count: 12
tnom = 27
temp = 27
method = modified trap
Direct Newton iteration for .op point succeeded.
Total elapsed time: 0.429 seconds.

