LTspice 24.1.7 for Windows
Circuit: C:\Users\Parry\Documents\GitHub\BCIT-BAJA\testing\LTSPICE_SIMS\RC_TimeConstantForADC.net
Start Time: Sat May 17 07:18:29 2025
solver = Normal
Maximum thread count: 16
tnom = 27
temp = 27
method = trap
.OP point found by inspection.
Total elapsed time: 0.039 seconds.

Files loaded:
C:\Users\Parry\Documents\GitHub\BCIT-BAJA\testing\LTSPICE_SIMS\RC_TimeConstantForADC.net

