LTspice 24.1.7 for Windows
Circuit: C:\Users\Parry\Documents\GitHub\BCIT-BAJA\testing\LTSPICE_SIMS\strainGaugeTransientAnalysis.net
Start Time: Sun May 18 13:57:22 2025
solver = Normal
Maximum thread count: 16
tnom = 27
temp = 27
method = trap
Direct Newton iteration for .op point succeeded.
Changing Tseed to 1e-08
Changing Tseed to 1e-10
Warning: Simulation tolerance relaxed to achieve convergence from 2.8301987078970275e-01 to 2.8301987078970375e-01 seconds.
Warning: Simulation tolerance relaxed to achieve convergence from 2.8301987086079489e-01 to 2.8301987086079589e-01 seconds.
Warning: Simulation tolerance relaxed to achieve convergence from 2.8301987096519438e-01 to 2.8301987096519537e-01 seconds.
Warning: Simulation tolerance relaxed to achieve convergence from 2.8301987117009048e-01 to 2.8301987117009147e-01 seconds.
Total elapsed time: 598.623 seconds.

Files loaded:
C:\Users\Parry\Documents\GitHub\BCIT-BAJA\testing\LTSPICE_SIMS\strainGaugeTransientAnalysis.net
C:\Users\Parry\AppData\Local\LTspice\lib\cmp\standard.mos
C:\Users\Parry\Documents\GitHub\BCIT-BAJA\testing\LTSPICE_SIMS\library\INA317.LIB
C:\Users\Parry\Documents\GitHub\BCIT-BAJA\testing\LTSPICE_SIMS\library\tlv9062.LIB

