LTspice 24.1.7 for Windows
Circuit: C:\Users\Parry\Documents\GitHub\BCIT-BAJA\testing\LTSPICE_SIMS\strainGaugeTransientAnalysis.net
Start Time: Thu May  8 07:13:39 2025
solver = Normal
Maximum thread count: 16
tnom = 27
temp = 27
method = trap
Direct Newton iteration for .op point succeeded.
Total elapsed time: 0.119 seconds.

Files loaded:
C:\Users\Parry\Documents\GitHub\BCIT-BAJA\testing\LTSPICE_SIMS\strainGaugeTransientAnalysis.net
C:\Users\Parry\AppData\Local\LTspice\lib\cmp\standard.mos

