LTspice 24.1.7 for Windows
Circuit: C:\Users\Parry\Documents\GitHub\BCIT-BAJA\testing\LTSPICE_SIMS\strainGaugeTransientAnalysis.net
Start Time: Sat May 17 15:37:15 2025
solver = Normal
Maximum thread count: 16
tnom = 27
temp = 27
method = trap
Direct Newton iteration for .op point succeeded.
Changing Tseed to 9.76562e-09
Changing Tseed to 9.76563e-11
Total elapsed time: 7.788 seconds.

Files loaded:
C:\Users\Parry\Documents\GitHub\BCIT-BAJA\testing\LTSPICE_SIMS\strainGaugeTransientAnalysis.net
C:\Users\Parry\AppData\Local\LTspice\lib\cmp\standard.mos
C:\Users\Parry\Documents\GitHub\BCIT-BAJA\testing\LTSPICE_SIMS\library\INA317.LIB

